@<TRIPOS>MOLECULE
LIG
   84    90     1     0     0
SMALL
bcc


@<TRIPOS>ATOM
      1 C1          -8.6110    15.0600    27.9540 c          1 LIG       0.789500
      2 O1          -7.9390    14.0390    27.9410 o          1 LIG      -0.678500
      3 N1          -8.4610    15.9230    26.9050 n          1 LIG      -0.450300
      4 C2          -7.8540    15.3510    25.6960 c3         1 LIG       0.121800
      5 C3          -8.6270    17.3880    27.0110 c3         1 LIG       0.109700
      6 C4         -10.0290    17.9100    27.2980 c3         1 LIG       0.105600
      7 O2          -9.9290    19.2740    26.9980 oh         1 LIG      -0.605800
      8 C5         -10.4610    17.6450    28.7330 c3         1 LIG       0.105600
      9 O3         -11.6920    18.2540    29.0200 oh         1 LIG      -0.605800
     10 C6         -10.6570    16.1520    28.9640 c3         1 LIG       0.109700
     11 N2          -9.4610    15.2940    29.0040 n          1 LIG      -0.450300
     12 C7          -9.2710    14.4910    30.2150 c3         1 LIG       0.121800
     13 C8          -8.3810    15.7300    24.3360 ca         1 LIG      -0.094800
     14 C9          -9.7690    15.7120    24.0220 ca         1 LIG      -0.112500
     15 C10        -10.1950    15.9190    22.6940 ca         1 LIG      -0.122000
     16 C11         -9.2190    16.1520    21.6930 ca         1 LIG      -0.035000
     17 C12         -9.6080    16.3040    20.3490 ca         1 LIG      -0.118500
     18 C13         -8.6260    16.5080    19.3490 ca         1 LIG      -0.126000
     19 C14         -7.2630    16.5620    19.6620 ca         1 LIG      -0.128500
     20 C15         -6.8600    16.4030    21.0060 ca         1 LIG      -0.115500
     21 C16         -7.8280    16.1920    22.0220 ca         1 LIG      -0.038000
     22 C17         -7.4080    15.9830    23.3460 ca         1 LIG      -0.109000
     23 C18         -7.4760    17.9720    27.8940 c3         1 LIG      -0.061600
     24 C19         -6.1240    17.8900    27.1930 ca         1 LIG      -0.087800
     25 C20         -5.2260    16.8260    27.4940 ca         1 LIG      -0.127000
     26 C21         -4.0290    16.6670    26.7500 ca         1 LIG      -0.131000
     27 C22         -3.7300    17.5850    25.7230 ca         1 LIG      -0.132000
     28 C23         -4.6070    18.6600    25.4320 ca         1 LIG      -0.131000
     29 C24         -5.8030    18.8110    26.1630 ca         1 LIG      -0.127000
     30 C25        -11.7120    15.4510    28.0790 c3         1 LIG      -0.061600
     31 C26        -12.3100    14.2480    28.7790 ca         1 LIG      -0.087800
     32 C27        -13.1670    14.4220    29.8980 ca         1 LIG      -0.127000
     33 C28        -13.7000    13.2810    30.5420 ca         1 LIG      -0.131000
     34 C29        -13.3740    11.9820    30.0580 ca         1 LIG      -0.132000
     35 C30        -12.5290    11.8140    28.9440 ca         1 LIG      -0.131000
     36 C31        -11.9920    12.9540    28.3040 ca         1 LIG      -0.127000
     37 C32         -9.3740    15.1480    31.5710 ca         1 LIG      -0.094800
     38 C33        -10.2280    14.4920    32.4770 ca         1 LIG      -0.109000
     39 C34        -10.2720    14.9260    33.8000 ca         1 LIG      -0.038000
     40 C35        -11.1560    14.2820    34.7090 ca         1 LIG      -0.115500
     41 C36        -11.2450    14.7480    36.0440 ca         1 LIG      -0.128500
     42 C37        -10.4350    15.8370    36.4510 ca         1 LIG      -0.126000
     43 C38         -9.5400    16.4750    35.5530 ca         1 LIG      -0.118500
     44 C39         -9.4550    16.0280    34.2120 ca         1 LIG      -0.035000
     45 C40         -8.6050    16.6910    33.2880 ca         1 LIG      -0.122000
     46 C41         -8.5740    16.2520    31.9620 ca         1 LIG      -0.112500
     47 H1          -8.2850    14.0310    30.1500 h1         1 LIG       0.073450
     48 H2         -12.5030    16.1570    27.8250 hc         1 LIG       0.068700
     49 H3         -11.2520    15.1370    27.1420 hc         1 LIG       0.068700
     50 H4          -7.6970    19.0110    28.1370 hc         1 LIG       0.068700
     51 H5          -7.4300    17.4270    28.8370 hc         1 LIG       0.068700
     52 H6          -6.7940    15.6040    25.7150 h1         1 LIG       0.073450
     53 H7          -7.9240    14.2670    25.7800 h1         1 LIG       0.073450
     54 H8         -11.5610    19.2190    29.1320 ho         1 LIG       0.409500
     55 H9         -10.8270    19.6600    26.9270 ho         1 LIG       0.409500
     56 H10         -7.9390    16.7550    31.2330 ha         1 LIG       0.138500
     57 H11         -7.9860    17.5290    33.6080 ha         1 LIG       0.133500
     58 H12         -8.9210    17.3050    35.8940 ha         1 LIG       0.132500
     59 H13        -10.5010    16.1940    37.4790 ha         1 LIG       0.132000
     60 H14        -11.9280    14.2750    36.7490 ha         1 LIG       0.132000
     61 H15        -11.7600    13.4360    34.3810 ha         1 LIG       0.133500
     62 H16        -10.0020    13.6830    30.1880 h1         1 LIG       0.073450
     63 H17        -10.8460    13.6560    32.1480 ha         1 LIG       0.138500
     64 H18        -11.3330    12.8360    27.4440 ha         1 LIG       0.139750
     65 H19        -12.2910    10.8150    28.5790 ha         1 LIG       0.132250
     66 H20        -13.7850    11.1040    30.5570 ha         1 LIG       0.130500
     67 H21        -14.3570    13.3950    31.4040 ha         1 LIG       0.132250
     68 H22        -13.4110    15.4220    30.2560 ha         1 LIG       0.139750
     69 H23        -11.0340    16.2340    29.9830 h1         1 LIG       0.088700
     70 H24         -9.6750    18.0500    29.3710 h1         1 LIG       0.062700
     71 H25        -10.8000    17.4120    26.7100 h1         1 LIG       0.062700
     72 H26         -6.4800    19.6350    25.9370 ha         1 LIG       0.139750
     73 H27         -4.3570    19.3700    24.6430 ha         1 LIG       0.132250
     74 H28         -2.8130    17.4670    25.1450 ha         1 LIG       0.130500
     75 H29         -3.3480    15.8450    26.9700 ha         1 LIG       0.132250
     76 H30         -5.4600    16.1310    28.3000 ha         1 LIG       0.139750
     77 H31         -8.5210    17.7940    26.0050 h1         1 LIG       0.088700
     78 H32         -6.3490    16.0160    23.6040 ha         1 LIG       0.138500
     79 H33         -5.8020    16.4420    21.2640 ha         1 LIG       0.133500
     80 H34         -6.5220    16.7250    18.8790 ha         1 LIG       0.132000
     81 H35         -8.9390    16.6260    18.3120 ha         1 LIG       0.132000
     82 H36        -10.6630    16.2650    20.0780 ha         1 LIG       0.132500
     83 H37        -11.2550    15.9000    22.4420 ha         1 LIG       0.133500
     84 H38        -10.5030    15.5380    24.8090 ha         1 LIG       0.138500
@<TRIPOS>BOND
     1     1    11 1   
     2     2     1 2   
     3     3     5 1   
     4     3     1 1   
     5     4    52 1   
     6     4    53 1   
     7     4     3 1   
     8     5    77 1   
     9     5     6 1   
    10     5    23 1   
    11     6    71 1   
    12     6     8 1   
    13     7     6 1   
    14     8    10 1   
    15     8     9 1   
    16     8    70 1   
    17     9    54 1   
    18    10    11 1   
    19    10    69 1   
    20    11    12 1   
    21    12    37 1   
    22    13     4 1   
    23    14    13 ar  
    24    14    84 1   
    25    15    14 ar  
    26    16    21 ar  
    27    16    15 ar  
    28    17    16 ar  
    29    18    19 ar  
    30    18    17 ar  
    31    19    20 ar  
    32    20    79 1   
    33    20    21 ar  
    34    21    22 ar  
    35    22    78 1   
    36    22    13 ar  
    37    23    50 1   
    38    23    51 1   
    39    24    25 ar  
    40    24    23 1   
    41    25    76 1   
    42    26    75 1   
    43    26    25 ar  
    44    27    26 ar  
    45    28    27 ar  
    46    28    29 ar  
    47    29    24 ar  
    48    30    31 1   
    49    30    10 1   
    50    31    32 ar  
    51    32    68 1   
    52    32    33 ar  
    53    33    67 1   
    54    34    33 ar  
    55    34    66 1   
    56    35    34 ar  
    57    36    31 ar  
    58    36    35 ar  
    59    37    46 ar  
    60    37    38 ar  
    61    38    39 ar  
    62    39    44 ar  
    63    39    40 ar  
    64    40    41 ar  
    65    41    42 ar  
    66    41    60 1   
    67    42    59 1   
    68    43    58 1   
    69    43    42 ar  
    70    44    43 ar  
    71    45    57 1   
    72    45    44 ar  
    73    46    45 ar  
    74    47    12 1   
    75    48    30 1   
    76    49    30 1   
    77    55     7 1   
    78    56    46 1   
    79    61    40 1   
    80    62    12 1   
    81    63    38 1   
    82    64    36 1   
    83    65    35 1   
    84    72    29 1   
    85    73    28 1   
    86    74    27 1   
    87    80    19 1   
    88    81    18 1   
    89    82    17 1   
    90    83    15 1   
@<TRIPOS>SUBSTRUCTURE
     1 LIG         1 TEMP              0 ****  ****    0 ROOT
