xk2.pdb
 OpenBabel10211614013D

 84 90  0  0  1  0  0  0  0  0999 V2000
   -8.6110   15.0600   27.9540 C   0  0  0  0  0  0  0  0  0  0  0  0
   -7.9390   14.0390   27.9410 O   0  0  0  0  0  0  0  0  0  0  0  0
   -8.4610   15.9230   26.9050 N   0  0  0  0  0  0  0  0  0  0  0  0
   -7.8540   15.3510   25.6960 C   0  0  0  0  0  0  0  0  0  0  0  0
   -8.6270   17.3880   27.0110 C   0  0  1  0  0  0  0  0  0  0  0  0
  -10.0290   17.9100   27.2980 C   0  0  2  0  0  0  0  0  0  0  0  0
   -9.9290   19.2740   26.9980 O   0  0  0  0  0  0  0  0  0  0  0  0
  -10.4610   17.6450   28.7330 C   0  0  1  0  0  0  0  0  0  0  0  0
  -11.6920   18.2540   29.0200 O   0  0  0  0  0  0  0  0  0  0  0  0
  -10.6570   16.1520   28.9640 C   0  0  2  0  0  0  0  0  0  0  0  0
   -9.4610   15.2940   29.0040 N   0  0  0  0  0  0  0  0  0  0  0  0
   -9.2710   14.4910   30.2150 C   0  0  0  0  0  0  0  0  0  0  0  0
   -8.3810   15.7300   24.3360 C   0  0  0  0  0  0  0  0  0  0  0  0
   -9.7690   15.7120   24.0220 C   0  0  0  0  0  0  0  0  0  0  0  0
  -10.1950   15.9190   22.6940 C   0  0  0  0  0  0  0  0  0  0  0  0
   -9.2190   16.1520   21.6930 C   0  0  0  0  0  0  0  0  0  0  0  0
   -9.6080   16.3040   20.3490 C   0  0  0  0  0  0  0  0  0  0  0  0
   -8.6260   16.5080   19.3490 C   0  0  0  0  0  0  0  0  0  0  0  0
   -7.2630   16.5620   19.6620 C   0  0  0  0  0  0  0  0  0  0  0  0
   -6.8600   16.4030   21.0060 C   0  0  0  0  0  0  0  0  0  0  0  0
   -7.8280   16.1920   22.0220 C   0  0  0  0  0  0  0  0  0  0  0  0
   -7.4080   15.9830   23.3460 C   0  0  0  0  0  0  0  0  0  0  0  0
   -7.4760   17.9720   27.8940 C   0  0  0  0  0  0  0  0  0  0  0  0
   -6.1240   17.8900   27.1930 C   0  0  0  0  0  0  0  0  0  0  0  0
   -5.2260   16.8260   27.4940 C   0  0  0  0  0  0  0  0  0  0  0  0
   -4.0290   16.6670   26.7500 C   0  0  0  0  0  0  0  0  0  0  0  0
   -3.7300   17.5850   25.7230 C   0  0  0  0  0  0  0  0  0  0  0  0
   -4.6070   18.6600   25.4320 C   0  0  0  0  0  0  0  0  0  0  0  0
   -5.8030   18.8110   26.1630 C   0  0  0  0  0  0  0  0  0  0  0  0
  -11.7120   15.4510   28.0790 C   0  0  0  0  0  0  0  0  0  0  0  0
  -12.3100   14.2480   28.7790 C   0  0  0  0  0  0  0  0  0  0  0  0
  -13.1670   14.4220   29.8980 C   0  0  0  0  0  0  0  0  0  0  0  0
  -13.7000   13.2810   30.5420 C   0  0  0  0  0  0  0  0  0  0  0  0
  -13.3740   11.9820   30.0580 C   0  0  0  0  0  0  0  0  0  0  0  0
  -12.5290   11.8140   28.9440 C   0  0  0  0  0  0  0  0  0  0  0  0
  -11.9920   12.9540   28.3040 C   0  0  0  0  0  0  0  0  0  0  0  0
   -9.3740   15.1480   31.5710 C   0  0  0  0  0  0  0  0  0  0  0  0
  -10.2280   14.4920   32.4770 C   0  0  0  0  0  0  0  0  0  0  0  0
  -10.2720   14.9260   33.8000 C   0  0  0  0  0  0  0  0  0  0  0  0
  -11.1560   14.2820   34.7090 C   0  0  0  0  0  0  0  0  0  0  0  0
  -11.2450   14.7480   36.0440 C   0  0  0  0  0  0  0  0  0  0  0  0
  -10.4350   15.8370   36.4510 C   0  0  0  0  0  0  0  0  0  0  0  0
   -9.5400   16.4750   35.5530 C   0  0  0  0  0  0  0  0  0  0  0  0
   -9.4550   16.0280   34.2120 C   0  0  0  0  0  0  0  0  0  0  0  0
   -8.6050   16.6910   33.2880 C   0  0  0  0  0  0  0  0  0  0  0  0
   -8.5740   16.2520   31.9620 C   0  0  0  0  0  0  0  0  0  0  0  0
   -8.2850   14.0310   30.1500 H   0  0  0  0  0  0  0  0  0  0  0  0
  -12.5030   16.1570   27.8250 H   0  0  0  0  0  0  0  0  0  0  0  0
  -11.2520   15.1370   27.1420 H   0  0  0  0  0  0  0  0  0  0  0  0
   -7.6970   19.0110   28.1370 H   0  0  0  0  0  0  0  0  0  0  0  0
   -7.4300   17.4270   28.8370 H   0  0  0  0  0  0  0  0  0  0  0  0
   -6.7940   15.6040   25.7150 H   0  0  0  0  0  0  0  0  0  0  0  0
   -7.9240   14.2670   25.7800 H   0  0  0  0  0  0  0  0  0  0  0  0
  -11.5610   19.2190   29.1320 H   0  0  0  0  0  0  0  0  0  0  0  0
  -10.8270   19.6600   26.9270 H   0  0  0  0  0  0  0  0  0  0  0  0
   -7.9390   16.7550   31.2330 H   0  0  0  0  0  0  0  0  0  0  0  0
   -7.9860   17.5290   33.6080 H   0  0  0  0  0  0  0  0  0  0  0  0
   -8.9210   17.3050   35.8940 H   0  0  0  0  0  0  0  0  0  0  0  0
  -10.5010   16.1940   37.4790 H   0  0  0  0  0  0  0  0  0  0  0  0
  -11.9280   14.2750   36.7490 H   0  0  0  0  0  0  0  0  0  0  0  0
  -11.7600   13.4360   34.3810 H   0  0  0  0  0  0  0  0  0  0  0  0
  -10.0020   13.6830   30.1880 H   0  0  0  0  0  0  0  0  0  0  0  0
  -10.8460   13.6560   32.1480 H   0  0  0  0  0  0  0  0  0  0  0  0
  -11.3330   12.8360   27.4440 H   0  0  0  0  0  0  0  0  0  0  0  0
  -12.2910   10.8150   28.5790 H   0  0  0  0  0  0  0  0  0  0  0  0
  -13.7850   11.1040   30.5570 H   0  0  0  0  0  0  0  0  0  0  0  0
  -14.3570   13.3950   31.4040 H   0  0  0  0  0  0  0  0  0  0  0  0
  -13.4110   15.4220   30.2560 H   0  0  0  0  0  0  0  0  0  0  0  0
  -11.0340   16.2340   29.9830 H   0  0  0  0  0  0  0  0  0  0  0  0
   -9.6750   18.0500   29.3710 H   0  0  0  0  0  0  0  0  0  0  0  0
  -10.8000   17.4120   26.7100 H   0  0  0  0  0  0  0  0  0  0  0  0
   -6.4800   19.6350   25.9370 H   0  0  0  0  0  0  0  0  0  0  0  0
   -4.3570   19.3700   24.6430 H   0  0  0  0  0  0  0  0  0  0  0  0
   -2.8130   17.4670   25.1450 H   0  0  0  0  0  0  0  0  0  0  0  0
   -3.3480   15.8450   26.9700 H   0  0  0  0  0  0  0  0  0  0  0  0
   -5.4600   16.1310   28.3000 H   0  0  0  0  0  0  0  0  0  0  0  0
   -8.5210   17.7940   26.0050 H   0  0  0  0  0  0  0  0  0  0  0  0
   -6.3490   16.0160   23.6040 H   0  0  0  0  0  0  0  0  0  0  0  0
   -5.8020   16.4420   21.2640 H   0  0  0  0  0  0  0  0  0  0  0  0
   -6.5220   16.7250   18.8790 H   0  0  0  0  0  0  0  0  0  0  0  0
   -8.9390   16.6260   18.3120 H   0  0  0  0  0  0  0  0  0  0  0  0
  -10.6630   16.2650   20.0780 H   0  0  0  0  0  0  0  0  0  0  0  0
  -11.2550   15.9000   22.4420 H   0  0  0  0  0  0  0  0  0  0  0  0
  -10.5030   15.5380   24.8090 H   0  0  0  0  0  0  0  0  0  0  0  0
  1 11  1  0  0  0  0
  2  1  2  0  0  0  0
  3  5  1  0  0  0  0
  3  1  1  0  0  0  0
  4 52  1  0  0  0  0
  4 53  1  0  0  0  0
  4  3  1  0  0  0  0
  5 77  1  6  0  0  0
  5  6  1  0  0  0  0
  5 23  1  0  0  0  0
  6 71  1  6  0  0  0
  6  8  1  0  0  0  0
  7  6  1  0  0  0  0
  8 10  1  0  0  0  0
  8  9  1  0  0  0  0
  8 70  1  1  0  0  0
  9 54  1  0  0  0  0
 10 11  1  0  0  0  0
 10 69  1  1  0  0  0
 11 12  1  0  0  0  0
 12 37  1  0  0  0  0
 13  4  1  0  0  0  0
 14 13  1  0  0  0  0
 14 84  1  0  0  0  0
 15 14  2  0  0  0  0
 16 21  1  0  0  0  0
 16 15  1  0  0  0  0
 17 16  2  0  0  0  0
 18 19  2  0  0  0  0
 18 17  1  0  0  0  0
 19 20  1  0  0  0  0
 20 79  1  0  0  0  0
 20 21  2  0  0  0  0
 21 22  1  0  0  0  0
 22 78  1  0  0  0  0
 22 13  2  0  0  0  0
 23 50  1  0  0  0  0
 23 51  1  0  0  0  0
 24 25  1  0  0  0  0
 24 23  1  0  0  0  0
 25 76  1  0  0  0  0
 26 75  1  0  0  0  0
 26 25  2  0  0  0  0
 27 26  1  0  0  0  0
 28 27  2  0  0  0  0
 28 29  1  0  0  0  0
 29 24  2  0  0  0  0
 30 31  1  0  0  0  0
 30 10  1  0  0  0  0
 31 32  1  0  0  0  0
 32 68  1  0  0  0  0
 32 33  2  0  0  0  0
 33 67  1  0  0  0  0
 34 33  1  0  0  0  0
 34 66  1  0  0  0  0
 35 34  2  0  0  0  0
 36 31  2  0  0  0  0
 36 35  1  0  0  0  0
 37 46  2  0  0  0  0
 37 38  1  0  0  0  0
 38 39  2  0  0  0  0
 39 44  1  0  0  0  0
 39 40  1  0  0  0  0
 40 41  2  0  0  0  0
 41 42  1  0  0  0  0
 41 60  1  0  0  0  0
 42 59  1  0  0  0  0
 43 58  1  0  0  0  0
 43 42  2  0  0  0  0
 44 43  1  0  0  0  0
 45 57  1  0  0  0  0
 45 44  2  0  0  0  0
 46 45  1  0  0  0  0
 47 12  1  0  0  0  0
 48 30  1  0  0  0  0
 49 30  1  0  0  0  0
 55  7  1  0  0  0  0
 56 46  1  0  0  0  0
 61 40  1  0  0  0  0
 62 12  1  0  0  0  0
 63 38  1  0  0  0  0
 64 36  1  0  0  0  0
 65 35  1  0  0  0  0
 72 29  1  0  0  0  0
 73 28  1  0  0  0  0
 74 27  1  0  0  0  0
 80 19  1  0  0  0  0
 81 18  1  0  0  0  0
 82 17  1  0  0  0  0
 83 15  1  0  0  0  0
M  END
$$$$
